units real
atom_style full
boundary p p p

# styles
pair_style lj/charmm/coul/long 8.0 12.0
kspace_style pppm 1e-6
dielectric 1.000000
bond_style harmonic
angle_style harmonic
dihedral_style fourier
improper_style cvff
special_bonds amber
pair_modify mix arithmetic
neighbor 2.0 bin
neigh_modify delay 0 every 1 check yes

# system definition
read_data ../final.data
Reading data file ...
  orthogonal box = (-25.800016 -24.079824 -155.73635) to (25.800016 24.079824 155.73635)
  reading atoms ...
  82020 atoms
  reading velocities ...
  82020 velocities
  scanning bonds ...
  scanning angles ...
  scanning dihedrals ...
  scanning impropers ...
  reading bonds ...
  84010 bonds
  reading angles ...
  150000 angles
  reading dihedrals ...
  219910 dihedrals
  reading impropers ...
  6000 impropers
Finding 1-2 1-3 1-4 neighbors ...
     4 = max # of 1-2 neighbors
    11 = max # of 1-3 neighbors
    22 = max # of 1-4 neighbors
    26 = max # of special neighbors
# do not reset velocities

# vars
variable tLog equal 1000
variable nEvery equal 10
variable nRepeat equal 100
variable boolDump equal 0
variable tDump equal 1000

variable tPreeq equal 10000
variable tPrerun equal 10000
variable tTCrun equal 1000000

variable diffT_delay equal 10000+10000
# heatflux of 0.05 give good results over 1 ns
variable heat_flux equal 0.05
variable heat_flux_neg equal -1*v_heat_flux

# defining region
variable hot_lo equal (ly*0)+ylo
variable hot_hi equal (ly*0.05)+ylo
variable cold_lo equal (ly*0.50)+ylo
variable cold_hi equal (ly*0.55)+ylo

DEBUG: -24.0798239715051 -21.6718415743546 0 2.40798239715051

# define heating and cooling block regions
region hot block INF INF -24.0798239715051 -21.6718415743546 INF INF units box
region cold block INF INF 0 2.40798239715051 INF INF units box
compute Thot all temp/region hot
compute Tcold all temp/region cold

# STEP 1 - 1st equilibration (nve)
# 1a - thermo output for md2
thermo_style custom step time temp c_Thot c_Tcold press enthalpy etotal ke pe
thermo_modify colname c_Thot Temp_hot colname c_Tcold Temp_cold
thermo_modify flush yes
thermo 1000

# 1b - nve equilibration
timestep 1.0
fix md2 all nve
run 10000
PPPM initialization ...
  G vector (1/distance) = 0.27316341
  grid = 60 60 225
  stencil order = 5
  estimated absolute RMS force accuracy = 0.00037618852
  estimated relative force accuracy = 1.1328806e-06
  3d grid and FFT values/proc = 47915 28800
Generated 120 of 120 mixed pair_coeff terms from arithmetic mixing rule
Step          Time           Temp         Temp_hot      Temp_cold        Press         Enthalpy        TotEng         KinEng         PotEng
0   0              300.41615      300.55937      299.18298      42.831017     -571123.67     -571607.16      73446.659     -645053.82
Averages over the last 6 of 11 rows, steps 5000 to 10000:
Temp Temp_hot Temp_cold Press Enthalpy TotEng KinEng PotEng
300.018 299.121 302.202 11.1392 -571472 -571598 73349.4 -644948
Loop time of 431.064 on 32 procs for 10000 steps with 82020 atoms

unfix md2

# STEP 2 - MD for thermal conductivity
# 2a - impose nve
fix md3 all nve

# 2b - impose heat flux
fix hot all ehex 1 0.05 region hot
fix cold all ehex 1 -0.05 region cold

# 2c - calculate thermal profile
compute ke all ke/atom
variable temp atom c_ke/(1.5*0.001987204)

compute layers all chunk/atom bin/1d y lower 0.05 units reduced
fix bins all ave/chunk 10 100 1000 layers v_temp file Tprofile_y_ehex.dat

variable tdiff equal c_Thot-c_Tcold
fix ave all ave/time 10 100 1000 v_tdiff ave running start 20000

# pre define kappa
variable kappa_inst equal 0
variable kappa equal 0

# 2d - thermo out
# dump dump_tc all custom 1000 dump.tc_x_ehex.lammpstrj id type mol x y z ix iy iz vx vy vz
thermo_style custom step time v_kappa v_kappa_inst c_Thot c_Tcold v_tdiff f_ave temp press enthalpy etotal ke pe
thermo_modify colname v_kappa kappa colname v_kappa_inst kappa_inst colname c_Thot Temp_hot colname c_Tcold Temp_cold colname v_tdiff dTemp_step colname f_ave dTemp
thermo_modify flush yes
thermo 1000

# 2e - prerun
run 10000
PPPM initialization ...
  G vector (1/distance) = 0.27316341
  grid = 60 60 225
  stencil order = 5
  estimated absolute RMS force accuracy = 0.00037618852
  estimated relative force accuracy = 1.1328806e-06
  3d grid and FFT values/proc = 47915 28800
Generated 120 of 120 mixed pair_coeff terms from arithmetic mixing rule
Step          Time          kappa        kappa_inst      Temp_hot      Temp_cold      dTemp_step       dTemp           Temp          Press         Enthalpy        TotEng         KinEng         PotEng
10000   10000          0              0              299.74888      305.38273     -5.6338514      0              300.62632     -125.15272     -573017.01     -571604.25      73498.043     -645102.29
Averages over the last 6 of 11 rows, steps 15000 to 20000:
kappa kappa_inst Temp_hot Temp_cold dTemp_step dTemp Temp Press Enthalpy TotEng KinEng PotEng
0 0 300.58 294.944 5.63543 0.980439 299.805 -48.6506 -572153 -571604 73297.2 -644901
Loop time of 440.218 on 32 procs for 10000 steps with 82020 atoms

# 2f - calc kappa
variable kappa_inst equal (0.05/(lx*lz)/2.0)*(ly/2.0)/v_tdiff*69478.5785
variable kappa equal (0.05/(lx*lz)/2.0)*(ly/2.0)/f_ave*69478.5785

# 2g - md run for kappa calculation
# optional traj dump
run 1000000
PPPM initialization ...
  G vector (1/distance) = 0.27316341
  grid = 60 60 225
  stencil order = 5
  estimated absolute RMS force accuracy = 0.00037618852
  estimated relative force accuracy = 1.1328806e-06
  3d grid and FFT values/proc = 47915 28800
Generated 120 of 120 mixed pair_coeff terms from arithmetic mixing rule
Step          Time          kappa        kappa_inst      Temp_hot      Temp_cold      dTemp_step       dTemp           Temp          Press         Enthalpy        TotEng         KinEng         PotEng
20000   20000          0.44238713     0.76457647     299.46276      296.05904      3.4037164      5.8826338      300.02214     -343.03635     -575479.75     -571607.45      73350.331     -644957.78
Averages over the last 501 of 1001 rows, steps 520000 to 1020000:
kappa kappa_inst Temp_hot Temp_cold dTemp_step dTemp Temp Press Enthalpy TotEng KinEng PotEng
0.193353 0.230954 307.636 293.545 14.0906 13.4626 300.534 -98.7408 -572718 -571603 73475.4 -645078
Loop time of 43940.9 on 32 procs for 1000000 steps with 82020 atoms
