units real
atom_style full
boundary p p p

# styles
pair_style lj/charmm/coul/long 8.0 12.0
kspace_style pppm 1e-6
dielectric 1.000000
bond_style harmonic
angle_style harmonic
dihedral_style fourier
improper_style cvff
special_bonds amber
pair_modify mix arithmetic
neighbor 2.0 bin
neigh_modify delay 0 every 1 check yes

# system definition
read_data ../final.data
Reading data file ...
  orthogonal box = (-41.07686 -32.676339 -31.575799) to (41.07686 32.676339 31.575799)
  reading atoms ...
  32020 atoms
  reading velocities ...
  32020 velocities
  scanning bonds ...
  scanning angles ...
  scanning dihedrals ...
  scanning impropers ...
  reading bonds ...
  34010 bonds
  reading angles ...
  60000 angles
  reading dihedrals ...
  95910 dihedrals
  reading impropers ...
  10000 impropers
Finding 1-2 1-3 1-4 neighbors ...
     4 = max # of 1-2 neighbors
     8 = max # of 1-3 neighbors
    18 = max # of 1-4 neighbors
    22 = max # of special neighbors
# do not reset velocities

# vars
variable tLog equal 1000
variable nEvery equal 10
variable nRepeat equal 100
variable boolDump equal 0
variable tDump equal 1000

variable tPreeq equal 10000
variable tPrerun equal 10000
variable tTCrun equal 1000000

variable diffT_delay equal 10000+10000
# heatflux of 0.05 give good results over 1 ns
variable heat_flux equal 0.05
variable heat_flux_neg equal -1*v_heat_flux

# defining region
variable hot_lo equal (lx*0)+xlo
variable hot_hi equal (lx*0.05)+xlo
variable cold_lo equal (lx*0.50)+xlo
variable cold_hi equal (lx*0.55)+xlo

DEBUG: -41.07686043132 -36.969174388188 0 4.107686043132

# define heating and cooling block regions
region hot block -41.07686043132 -36.969174388188 INF INF INF INF units box
region cold block 0 4.107686043132 INF INF INF INF units box
compute Thot all temp/region hot
compute Tcold all temp/region cold

# STEP 1 - 1st equilibration (nve)
# 1a - thermo output for md2
thermo_style custom step time temp c_Thot c_Tcold press enthalpy etotal ke pe
thermo_modify colname c_Thot Temp_hot colname c_Tcold Temp_cold
thermo_modify flush yes
thermo 1000

# 1b - nve equilibration
timestep 1.0
fix md2 all nve
run 10000
PPPM initialization ...
  G vector (1/distance) = 0.23713698
  grid = 45 36 36
  stencil order = 5
  estimated absolute RMS force accuracy = 0.00028675184
  estimated relative force accuracy = 8.6354464e-07
  3d grid and FFT values/proc = 7200 3240
Generated 10 of 10 mixed pair_coeff terms from arithmetic mixing rule
Step          Time           Temp         Temp_hot      Temp_cold        Press         Enthalpy        TotEng         KinEng         PotEng
0   0              299.02528      285.71405      299.54402     -153.33602      55796.692      56554.912      28539.738      28015.174
Averages over the last 6 of 11 rows, steps 5000 to 10000:
Temp Temp_hot Temp_cold Press Enthalpy TotEng KinEng PotEng
299.288 300.464 306.819 -222.357 55447 56546.5 28564.8 27981.7
Loop time of 102.152 on 32 procs for 10000 steps with 32020 atoms

unfix md2

# STEP 2 - MD for thermal conductivity
# 2a - impose nve
fix md3 all nve

# 2b - impose heat flux
fix hot all ehex 1 0.05 region hot
fix cold all ehex 1 -0.05 region cold

# 2c - calculate thermal profile
compute ke all ke/atom
variable temp atom c_ke/(1.5*0.001987204)

compute layers all chunk/atom bin/1d x lower 0.05 units reduced
fix bins all ave/chunk 10 100 1000 layers v_temp file Tprofile_x_ehex.dat

variable tdiff equal c_Thot-c_Tcold
fix ave all ave/time 10 100 1000 v_tdiff ave running start 20000

# pre define kappa
variable kappa_inst equal 0
variable kappa equal 0

# 2d - thermo out
# dump dump_tc all custom 1000 dump.tc_x_ehex.lammpstrj id type mol x y z ix iy iz vx vy vz
thermo_style custom step time v_kappa v_kappa_inst c_Thot c_Tcold v_tdiff f_ave temp press enthalpy etotal ke pe
thermo_modify colname v_kappa kappa colname v_kappa_inst kappa_inst colname c_Thot Temp_hot colname c_Tcold Temp_cold colname v_tdiff dTemp_step colname f_ave dTemp
thermo_modify flush yes
thermo 1000

# 2e - prerun
run 10000
PPPM initialization ...
  G vector (1/distance) = 0.23713698
  grid = 45 36 36
  stencil order = 5
  estimated absolute RMS force accuracy = 0.00028675184
  estimated relative force accuracy = 8.6354464e-07
  3d grid and FFT values/proc = 7200 3240
Generated 10 of 10 mixed pair_coeff terms from arithmetic mixing rule
Step          Time          kappa        kappa_inst      Temp_hot      Temp_cold      dTemp_step       dTemp           Temp          Press         Enthalpy        TotEng         KinEng         PotEng
10000   10000          0              0              302.87115      299.59727      3.2738755      0              298.80037      74.129188      56914.001      56547.445      28518.272      28029.174
Averages over the last 6 of 11 rows, steps 15000 to 20000:
kappa kappa_inst Temp_hot Temp_cold dTemp_step dTemp Temp Press Enthalpy TotEng KinEng PotEng
0 0 314.981 289.497 25.4848 4.90514 299.769 -15.0812 56471.8 56546.4 28610.7 27935.7
Loop time of 104.84 on 32 procs for 10000 steps with 32020 atoms

# 2f - calc kappa
variable kappa_inst equal (0.05/(ly*lz)/2.0)*(lx/2.0)/v_tdiff*69478.5785
variable kappa equal (0.05/(ly*lz)/2.0)*(lx/2.0)/f_ave*69478.5785

# 2g - md run for kappa calculation
# optional traj dump
run 1000000
PPPM initialization ...
  G vector (1/distance) = 0.23713698
  grid = 45 36 36
  stencil order = 5
  estimated absolute RMS force accuracy = 0.00028675184
  estimated relative force accuracy = 8.6354464e-07
  3d grid and FFT values/proc = 7200 3240
Generated 10 of 10 mixed pair_coeff terms from arithmetic mixing rule
Step          Time          kappa        kappa_inst      Temp_hot      Temp_cold      dTemp_step       dTemp           Temp          Press         Enthalpy        TotEng         KinEng         PotEng
20000   20000          0.58740481     0.57521611     315.32011      285.26562      30.054493      29.43086       299.50071     -162.03604      55744.466      56545.706      28585.114      27960.592
Averages over the last 501 of 1001 rows, steps 520000 to 1020000:
kappa kappa_inst Temp_hot Temp_cold dTemp_step dTemp Temp Press Enthalpy TotEng KinEng PotEng
0.190457 0.181636 347.985 251.92 96.0651 90.7835 299.835 -12.8446 56484.3 56547.9 28617.1 27930.8
Loop time of 10673.6 on 32 procs for 1000000 steps with 32020 atoms
