units real
atom_style full
boundary p p p

# styles
pair_style lj/charmm/coul/long 8.0 12.0
kspace_style pppm 1e-6
dielectric 1.000000
bond_style harmonic
angle_style harmonic
dihedral_style fourier
improper_style cvff
special_bonds amber
pair_modify mix arithmetic
neighbor 2.0 bin
neigh_modify delay 0 every 1 check yes

# system definition
read_data ../final.data
Reading data file ...
  orthogonal box = (-41.07686 -32.676339 -31.575799) to (41.07686 32.676339 31.575799)
  reading atoms ...
  32020 atoms
  reading velocities ...
  32020 velocities
  scanning bonds ...
  scanning angles ...
  scanning dihedrals ...
  scanning impropers ...
  reading bonds ...
  34010 bonds
  reading angles ...
  60000 angles
  reading dihedrals ...
  95910 dihedrals
  reading impropers ...
  10000 impropers
Finding 1-2 1-3 1-4 neighbors ...
     4 = max # of 1-2 neighbors
     8 = max # of 1-3 neighbors
    18 = max # of 1-4 neighbors
    22 = max # of special neighbors
# do not reset velocities

# vars
variable tLog equal 1000
variable nEvery equal 10
variable nRepeat equal 100
variable boolDump equal 0
variable tDump equal 1000

variable tPreeq equal 10000
variable tPrerun equal 10000
variable tTCrun equal 1000000

variable diffT_delay equal 10000+10000
# heatflux of 0.05 give good results over 1 ns
variable heat_flux equal 0.05
variable heat_flux_neg equal -1*v_heat_flux

# defining region
variable hot_lo equal (ly*0)+ylo
variable hot_hi equal (ly*0.05)+ylo
variable cold_lo equal (ly*0.50)+ylo
variable cold_hi equal (ly*0.55)+ylo

DEBUG: -32.6763385301816 -29.4087046771634 0 3.26763385301816

# define heating and cooling block regions
region hot block INF INF -32.6763385301816 -29.4087046771634 INF INF units box
region cold block INF INF 0 3.26763385301816 INF INF units box
compute Thot all temp/region hot
compute Tcold all temp/region cold

# STEP 1 - 1st equilibration (nve)
# 1a - thermo output for md2
thermo_style custom step time temp c_Thot c_Tcold press enthalpy etotal ke pe
thermo_modify colname c_Thot Temp_hot colname c_Tcold Temp_cold
thermo_modify flush yes
thermo 1000

# 1b - nve equilibration
timestep 1.0
fix md2 all nve
run 10000
PPPM initialization ...
  G vector (1/distance) = 0.23713698
  grid = 45 36 36
  stencil order = 5
  estimated absolute RMS force accuracy = 0.00028675184
  estimated relative force accuracy = 8.6354464e-07
  3d grid and FFT values/proc = 7200 3240
Generated 10 of 10 mixed pair_coeff terms from arithmetic mixing rule
Step          Time           Temp         Temp_hot      Temp_cold        Press         Enthalpy        TotEng         KinEng         PotEng
0   0              299.02528      296.86558      305.10596     -153.33602      55796.692      56554.912      28539.738      28015.174
Averages over the last 6 of 11 rows, steps 5000 to 10000:
Temp Temp_hot Temp_cold Press Enthalpy TotEng KinEng PotEng
299.288 305.935 300.281 -222.357 55447 56546.5 28564.8 27981.7
Loop time of 104.772 on 32 procs for 10000 steps with 32020 atoms

unfix md2

# STEP 2 - MD for thermal conductivity
# 2a - impose nve
fix md3 all nve

# 2b - impose heat flux
fix hot all ehex 1 0.05 region hot
fix cold all ehex 1 -0.05 region cold

# 2c - calculate thermal profile
compute ke all ke/atom
variable temp atom c_ke/(1.5*0.001987204)

compute layers all chunk/atom bin/1d y lower 0.05 units reduced
fix bins all ave/chunk 10 100 1000 layers v_temp file Tprofile_y_ehex.dat

variable tdiff equal c_Thot-c_Tcold
fix ave all ave/time 10 100 1000 v_tdiff ave running start 20000

# pre define kappa
variable kappa_inst equal 0
variable kappa equal 0

# 2d - thermo out
# dump dump_tc all custom 1000 dump.tc_x_ehex.lammpstrj id type mol x y z ix iy iz vx vy vz
thermo_style custom step time v_kappa v_kappa_inst c_Thot c_Tcold v_tdiff f_ave temp press enthalpy etotal ke pe
thermo_modify colname v_kappa kappa colname v_kappa_inst kappa_inst colname c_Thot Temp_hot colname c_Tcold Temp_cold colname v_tdiff dTemp_step colname f_ave dTemp
thermo_modify flush yes
thermo 1000

# 2e - prerun
run 10000
PPPM initialization ...
  G vector (1/distance) = 0.23713698
  grid = 45 36 36
  stencil order = 5
  estimated absolute RMS force accuracy = 0.00028675184
  estimated relative force accuracy = 8.6354464e-07
  3d grid and FFT values/proc = 7200 3240
Generated 10 of 10 mixed pair_coeff terms from arithmetic mixing rule
Step          Time          kappa        kappa_inst      Temp_hot      Temp_cold      dTemp_step       dTemp           Temp          Press         Enthalpy        TotEng         KinEng         PotEng
10000   10000          0              0              299.59519      296.23438      3.3608119      0              298.80037      74.129188      56914.001      56547.445      28518.272      28029.174
Averages over the last 6 of 11 rows, steps 15000 to 20000:
kappa kappa_inst Temp_hot Temp_cold dTemp_step dTemp Temp Press Enthalpy TotEng KinEng PotEng
0 0 312.638 290.947 21.6912 4.76672 300.184 -48.473 56309.2 56548.9 28650.3 27898.6
Loop time of 106.169 on 32 procs for 10000 steps with 32020 atoms

# 2f - calc kappa
variable kappa_inst equal (0.05/(lx*lz)/2.0)*(ly/2.0)/v_tdiff*69478.5785
variable kappa equal (0.05/(lx*lz)/2.0)*(ly/2.0)/f_ave*69478.5785

# 2g - md run for kappa calculation
# optional traj dump
run 1000000
PPPM initialization ...
  G vector (1/distance) = 0.23713698
  grid = 45 36 36
  stencil order = 5
  estimated absolute RMS force accuracy = 0.00028675184
  estimated relative force accuracy = 8.6354464e-07
  3d grid and FFT values/proc = 7200 3240
Generated 10 of 10 mixed pair_coeff terms from arithmetic mixing rule
Step          Time          kappa        kappa_inst      Temp_hot      Temp_cold      dTemp_step       dTemp           Temp          Press         Enthalpy        TotEng         KinEng         PotEng
20000   20000          0.38250939     0.34507854     314.0982       282.39561      31.702593      28.600303      299.99083      469.62916      58874.423      56552.189      28631.892      27920.297
Averages over the last 501 of 1001 rows, steps 520000 to 1020000:
kappa kappa_inst Temp_hot Temp_cold dTemp_step dTemp Temp Press Enthalpy TotEng KinEng PotEng
0.17402 0.175912 331.066 267.642 63.4236 62.8659 299.788 -40.9939 56344.7 56547.4 28612.5 27934.9
Loop time of 10638.7 on 32 procs for 1000000 steps with 32020 atoms
