units real
atom_style full
boundary p p p

# styles
pair_style lj/charmm/coul/long 8.0 12.0
kspace_style pppm 1e-6
dielectric 1.000000
bond_style harmonic
angle_style harmonic
dihedral_style fourier
improper_style cvff
special_bonds amber
pair_modify mix arithmetic
neighbor 2.0 bin
neigh_modify delay 0 every 1 check yes

# system definition
read_data ../final.data
Reading data file ...
  orthogonal box = (-33.330319 -36.534749 -30.91591) to (33.330319 36.534749 30.91591)
  reading atoms ...
  32020 atoms
  reading velocities ...
  32020 velocities
  scanning bonds ...
  scanning angles ...
  scanning dihedrals ...
  scanning impropers ...
  reading bonds ...
  32010 bonds
  reading angles ...
  60000 angles
  reading dihedrals ...
  79910 dihedrals
  reading impropers ...
  2000 impropers
Finding 1-2 1-3 1-4 neighbors ...
     4 = max # of 1-2 neighbors
     8 = max # of 1-3 neighbors
    17 = max # of 1-4 neighbors
    20 = max # of special neighbors
# do not reset velocities

# vars
variable dt equal 1.0
variable tLog equal 1000
variable nEvery equal 10
variable nRepeat equal 100
variable boolDump equal 0
variable tDump equal 1000

variable tPreeq equal 10000
variable tPrerun equal 10000
variable tDelay equal 1000
variable tTCrun equal 1000000

# desiered temperature difference
variable Tavg equal 300.0
variable TempDiff equal 100.0
variable Thi equal 300+(100/2)
variable Tlo equal 300-(100/2)

# defining regions
variable hot_lo equal (lx*0)+xlo
variable hot_hi equal (lx*0.05)+xlo
variable cold_lo equal (lx*0.50)+xlo
variable cold_hi equal (lx*0.55)+xlo

# define heating and cooling block regions
region hot block -33.3303191583107 -29.9972872424796 INF INF INF INF units box
region cold block 0 3.33303191583107 INF INF INF INF units box
compute Thot all temp/region hot
compute Tcold all temp/region cold

# STEP 1 - 1st equilibration (nve)
# 1a - thermo output for md1
thermo_style custom step time temp c_Thot c_Tcold press enthalpy etotal ke pe
thermo_modify colname c_Thot Temp_hot colname c_Tcold Temp_cold
thermo_modify flush yes
thermo 1000

# 1b - nve equilibration
timestep 1
fix md1 all nve
run 10000
PPPM initialization ...
  G vector (1/distance) = 0.25629853
  grid = 50 54 48
  stencil order = 5
  estimated absolute RMS force accuracy = 0.00035481857
  estimated relative force accuracy = 1.0685256e-06
  3d grid and FFT values/proc = 11780 5400
Generated 21 of 21 mixed pair_coeff terms from arithmetic mixing rule
Step          Time           Temp         Temp_hot      Temp_cold        Press         Enthalpy        TotEng         KinEng         PotEng
0   0              301.29534      306.00458      292.82314     -364.57431      74529.36       76130.686      28756.398      47374.288
Averages over the last 6 of 11 rows, steps 5000 to 10000:
Temp Temp_hot Temp_cold Press Enthalpy TotEng KinEng PotEng
301.39 301.977 302.187 40.8943 76313.4 76133.7 28765.5 47368.3
Loop time of 125.392 on 32 procs for 10000 steps with 32020 atoms

unfix md1

# STEP 2 - pre run
# 2a - impose nve
fix md2 all nve

# 2b - impose thermostating
fix hot all langevin 350 350 100.0 57485 tally yes
fix cold all langevin 250 250 100.0 12490 tally yes
fix_modify hot temp Thot
fix_modify cold temp Tcold
# calculate tdiff of regions
variable tdiff equal c_Thot-c_Tcold

# 2c - thermo output
thermo_style custom step time temp c_Thot c_Tcold f_hot f_cold v_tdiff press enthalpy etotal ke pe
thermo_modify colname c_Thot Temp_hot colname c_Tcold Temp_cold               colname f_hot E_hot colname f_cold E_cold               colname v_tdiff dTemp_step
thermo_modify flush yes
thermo 1000

# 2d - pre run
run 10000
PPPM initialization ...
  G vector (1/distance) = 0.25629853
  grid = 50 54 48
  stencil order = 5
  estimated absolute RMS force accuracy = 0.00035481857
  estimated relative force accuracy = 1.0685256e-06
  3d grid and FFT values/proc = 11780 5400
Generated 21 of 21 mixed pair_coeff terms from arithmetic mixing rule
Step          Time           Temp         Temp_hot      Temp_cold        E_hot          E_cold       dTemp_step       Press         Enthalpy        TotEng         KinEng         PotEng
10000   10000          300.81516      307.06175      294.80928     -0             -0              12.25247      -299.6309       74825.025      76141.099      28710.568      47430.531
Averages over the last 6 of 11 rows, steps 15000 to 20000:
Temp Temp_hot Temp_cold E_hot E_cold dTemp_step Press Enthalpy TotEng KinEng PotEng
300.193 349.851 250.414 -2468.73 2761.27 99.4372 111.399 76368.3 75879 28651.2 47227.8
Loop time of 125.603 on 32 procs for 10000 steps with 32020 atoms

unfix md2

# STEP 3 - md for tc caluclation
# 3a - impose nve
fix md3 all nve

# 3b - calculate and output thermal profile
compute ke all ke/atom
variable temp atom c_ke/(1.5*0.001987204)
compute layers all chunk/atom bin/1d x lower 0.05 units reduced
fix bins all ave/chunk 10 100 1000 layers v_temp file Tprofile_x_lav.dat

# 3c - reset thermostats to zero energy accumulation
fix hot all langevin 350 350 100.0 57485 tally yes
fix cold all langevin 250 250 100.0 12490 tally yes
fix_modify hot temp Thot
fix_modify cold temp Tcold

# 3c - compute average tdiff
fix ave all ave/time 10 100 1000 v_tdiff ave running

# 3d - time delay run
variable aTime equal time
variable start_time equal 20000
run 1000
PPPM initialization ...
  G vector (1/distance) = 0.25629853
  grid = 50 54 48
  stencil order = 5
  estimated absolute RMS force accuracy = 0.00035481857
  estimated relative force accuracy = 1.0685256e-06
  3d grid and FFT values/proc = 11780 5400
Generated 21 of 21 mixed pair_coeff terms from arithmetic mixing rule
Step          Time           Temp         Temp_hot      Temp_cold        E_hot          E_cold       dTemp_step       Press         Enthalpy        TotEng         KinEng         PotEng
20000   20000          298.72093      331.15559      247.42109     -0             -0              83.734496      16.144329      75874.17       75803.259      28510.69       47292.569
Loop time of 12.6671 on 32 procs for 1000 steps with 32020 atoms

# 3f - calculate kappa
variable kappa_inst equal (0.5*(abs(f_hot)+abs(f_cold))/(time-20000)/(ly*lz)/2.0)*(lx/2.0)/v_tdiff*69478.5785
variable kappa equal (0.5*(abs(f_hot)+abs(f_cold))/(time-20000)/(ly*lz)/2.0)*(lx/2.0)/f_ave*69478.5785

# 3e - thermo out
# dump dump_tc all custom 1000 dump.tc_x_ehex.lammpstrj id type mol x y z ix iy iz vx vy vz
thermo_style custom step time v_kappa v_kappa_inst c_Thot c_Tcold v_tdiff f_ave temp press enthalpy etotal ke pe
thermo_modify colname v_kappa kappa colname v_kappa_inst kappa_inst               colname c_Thot Temp_hot colname c_Tcold Temp_cold               colname v_tdiff dTemp_step colname f_ave dTemp
thermo_modify flush yes
thermo 1000

# 2g - md run for kappa calculation
# optional traj dump
run 1000000
PPPM initialization ...
  G vector (1/distance) = 0.25629853
  grid = 50 54 48
  stencil order = 5
  estimated absolute RMS force accuracy = 0.00035481857
  estimated relative force accuracy = 1.0685256e-06
  3d grid and FFT values/proc = 11780 5400
Generated 21 of 21 mixed pair_coeff terms from arithmetic mixing rule
Step          Time          kappa        kappa_inst      Temp_hot      Temp_cold      dTemp_step       dTemp           Temp          Press         Enthalpy        TotEng         KinEng         PotEng
21000   21000          0              0              342.64949      255.56194      87.087547      95.40244       299.83969     -110.42855      75374.041      75859.078      28617.467      47241.612
Averages over the last 501 of 1001 rows, steps 521000 to 1021000:
kappa kappa_inst Temp_hot Temp_cold dTemp_step dTemp Temp Press Enthalpy TotEng KinEng PotEng
0.306708 0.3107 349.047 251.799 97.2473 97.6981 298.094 -66.8742 75273.1 75566.8 28450.8 47116
Loop time of 12548.4 on 32 procs for 1000000 steps with 32020 atoms
