units real
atom_style full
boundary p p p

# styles
pair_style lj/charmm/coul/long 8.0 12.0
kspace_style pppm 1e-6
dielectric 1.000000
bond_style harmonic
angle_style harmonic
dihedral_style fourier
improper_style cvff
special_bonds amber
pair_modify mix arithmetic
neighbor 2.0 bin
neigh_modify delay 0 every 1 check yes

# system definition
read_data ../final.data
Reading data file ...
  orthogonal box = (-25.800016 -24.079824 -155.73635) to (25.800016 24.079824 155.73635)
  reading atoms ...
  82020 atoms
  reading velocities ...
  82020 velocities
  scanning bonds ...
  scanning angles ...
  scanning dihedrals ...
  scanning impropers ...
  reading bonds ...
  84010 bonds
  reading angles ...
  150000 angles
  reading dihedrals ...
  219910 dihedrals
  reading impropers ...
  6000 impropers
Finding 1-2 1-3 1-4 neighbors ...
     4 = max # of 1-2 neighbors
    11 = max # of 1-3 neighbors
    22 = max # of 1-4 neighbors
    26 = max # of special neighbors
# do not reset velocities

# vars
variable dt equal 1.0
variable tLog equal 1000
variable nEvery equal 10
variable nRepeat equal 100
variable boolDump equal 0
variable tDump equal 1000

variable tPreeq equal 10000
variable tPrerun equal 10000
variable tDelay equal 1000
variable tTCrun equal 1000000

# desiered temperature difference
variable Tavg equal 300.0
variable TempDiff equal 100.0
variable Thi equal 300+(100/2)
variable Tlo equal 300-(100/2)

# defining regions
variable hot_lo equal (lx*0)+xlo
variable hot_hi equal (lx*0.05)+xlo
variable cold_lo equal (lx*0.50)+xlo
variable cold_hi equal (lx*0.55)+xlo

# define heating and cooling block regions
region hot block -25.8000158555518 -23.2200142699966 INF INF INF INF units box
region cold block 0 2.58000158555518 INF INF INF INF units box
compute Thot all temp/region hot
compute Tcold all temp/region cold

# STEP 1 - 1st equilibration (nve)
# 1a - thermo output for md1
thermo_style custom step time temp c_Thot c_Tcold press enthalpy etotal ke pe
thermo_modify colname c_Thot Temp_hot colname c_Tcold Temp_cold
thermo_modify flush yes
thermo 1000

# 1b - nve equilibration
timestep 1
fix md1 all nve
run 10000
PPPM initialization ...
  G vector (1/distance) = 0.27316341
  grid = 60 60 225
  stencil order = 5
  estimated absolute RMS force accuracy = 0.00037618852
  estimated relative force accuracy = 1.1328806e-06
  3d grid and FFT values/proc = 47915 28800
Generated 120 of 120 mixed pair_coeff terms from arithmetic mixing rule
Step          Time           Temp         Temp_hot      Temp_cold        Press         Enthalpy        TotEng         KinEng         PotEng
0   0              300.41615      297.90249      299.08463      42.831017     -571123.67     -571607.16      73446.659     -645053.82
Averages over the last 6 of 11 rows, steps 5000 to 10000:
Temp Temp_hot Temp_cold Press Enthalpy TotEng KinEng PotEng
300.018 297.685 300.588 11.1392 -571472 -571598 73349.4 -644948
Loop time of 597.148 on 32 procs for 10000 steps with 82020 atoms

unfix md1

# STEP 2 - pre run
# 2a - impose nve
fix md2 all nve

# 2b - impose thermostating
fix hot all langevin 350 350 100.0 57485 tally yes
fix cold all langevin 250 250 100.0 12490 tally yes
fix_modify hot temp Thot
fix_modify cold temp Tcold
# calculate tdiff of regions
variable tdiff equal c_Thot-c_Tcold

# 2c - thermo output
thermo_style custom step time temp c_Thot c_Tcold f_hot f_cold v_tdiff press enthalpy etotal ke pe
thermo_modify colname c_Thot Temp_hot colname c_Tcold Temp_cold               colname f_hot E_hot colname f_cold E_cold               colname v_tdiff dTemp_step
thermo_modify flush yes
thermo 1000

# 2d - pre run
run 10000
PPPM initialization ...
  G vector (1/distance) = 0.27316341
  grid = 60 60 225
  stencil order = 5
  estimated absolute RMS force accuracy = 0.00037618852
  estimated relative force accuracy = 1.1328806e-06
  3d grid and FFT values/proc = 47915 28800
Generated 120 of 120 mixed pair_coeff terms from arithmetic mixing rule
Step          Time           Temp         Temp_hot      Temp_cold        E_hot          E_cold       dTemp_step       Press         Enthalpy        TotEng         KinEng         PotEng
10000   10000          300.62632      300.52827      297.78799     -0             -0              2.7402846     -125.15272     -573017.01     -571604.25      73498.043     -645102.29
Averages over the last 6 of 11 rows, steps 15000 to 20000:
Temp Temp_hot Temp_cold E_hot E_cold dTemp_step Press Enthalpy TotEng KinEng PotEng
298.832 350.029 253.782 -7994.21 8611.53 96.2468 77.5113 -571257 -572132 73059.3 -645191
Loop time of 604.608 on 32 procs for 10000 steps with 82020 atoms

unfix md2

# STEP 3 - md for tc caluclation
# 3a - impose nve
fix md3 all nve

# 3b - calculate and output thermal profile
compute ke all ke/atom
variable temp atom c_ke/(1.5*0.001987204)
compute layers all chunk/atom bin/1d x lower 0.05 units reduced
fix bins all ave/chunk 10 100 1000 layers v_temp file Tprofile_x_lav.dat

# 3c - reset thermostats to zero energy accumulation
fix hot all langevin 350 350 100.0 57485 tally yes
fix cold all langevin 250 250 100.0 12490 tally yes
fix_modify hot temp Thot
fix_modify cold temp Tcold

# 3c - compute average tdiff
fix ave all ave/time 10 100 1000 v_tdiff ave running

# 3d - time delay run
variable aTime equal time
variable start_time equal 20000
run 1000
PPPM initialization ...
  G vector (1/distance) = 0.27316341
  grid = 60 60 225
  stencil order = 5
  estimated absolute RMS force accuracy = 0.00037618852
  estimated relative force accuracy = 1.1328806e-06
  3d grid and FFT values/proc = 47915 28800
Generated 120 of 120 mixed pair_coeff terms from arithmetic mixing rule
Step          Time           Temp         Temp_hot      Temp_cold        E_hot          E_cold       dTemp_step       Press         Enthalpy        TotEng         KinEng         PotEng
20000   20000          298.58137      348.44849      252.16939     -0             -0              96.279098     -133.51527     -573756.76     -572249.6       72998.088     -645247.69
Loop time of 60.3534 on 32 procs for 1000 steps with 82020 atoms

# 3f - calculate kappa
variable kappa_inst equal (0.5*(abs(f_hot)+abs(f_cold))/(time-20000)/(ly*lz)/2.0)*(lx/2.0)/v_tdiff*69478.5785
variable kappa equal (0.5*(abs(f_hot)+abs(f_cold))/(time-20000)/(ly*lz)/2.0)*(lx/2.0)/f_ave*69478.5785

# 3e - thermo out
# dump dump_tc all custom 1000 dump.tc_x_ehex.lammpstrj id type mol x y z ix iy iz vx vy vz
thermo_style custom step time v_kappa v_kappa_inst c_Thot c_Tcold v_tdiff f_ave temp press enthalpy etotal ke pe
thermo_modify colname v_kappa kappa colname v_kappa_inst kappa_inst               colname c_Thot Temp_hot colname c_Tcold Temp_cold               colname v_tdiff dTemp_step colname f_ave dTemp
thermo_modify flush yes
thermo 1000

# 2g - md run for kappa calculation
# optional traj dump
run 1000000
PPPM initialization ...
  G vector (1/distance) = 0.27316341
  grid = 60 60 225
  stencil order = 5
  estimated absolute RMS force accuracy = 0.00037618852
  estimated relative force accuracy = 1.1328806e-06
  3d grid and FFT values/proc = 47915 28800
Generated 120 of 120 mixed pair_coeff terms from arithmetic mixing rule
Step          Time          kappa        kappa_inst      Temp_hot      Temp_cold      dTemp_step       dTemp           Temp          Press         Enthalpy        TotEng         KinEng         PotEng
21000   21000          0              0              344.96752      253.3444       91.623115      93.83439       299.17621      265.61281     -569019.51     -572017.83      73143.516     -645161.35
Averages over the last 501 of 1001 rows, steps 521000 to 1021000:
kappa kappa_inst Temp_hot Temp_cold dTemp_step dTemp Temp Press Enthalpy TotEng KinEng PotEng
0.315977 0.316228 348.45 252.284 96.1662 95.9238 297.753 -54.1978 -573570 -572958 72795.6 -645753
Loop time of 55887.1 on 32 procs for 1000000 steps with 82020 atoms
