units real
atom_style full
boundary p p p

# styles
pair_style lj/charmm/coul/long 8.0 12.0
kspace_style pppm 1e-6
dielectric 1.000000
bond_style harmonic
angle_style harmonic
dihedral_style fourier
improper_style cvff
special_bonds amber
pair_modify mix arithmetic
neighbor 2.0 bin
neigh_modify delay 0 every 1 check yes

# system definition
read_data ../final.data
Reading data file ...
  orthogonal box = (-25.800016 -24.079824 -155.73635) to (25.800016 24.079824 155.73635)
  reading atoms ...
  82020 atoms
  reading velocities ...
  82020 velocities
  scanning bonds ...
  scanning angles ...
  scanning dihedrals ...
  scanning impropers ...
  reading bonds ...
  84010 bonds
  reading angles ...
  150000 angles
  reading dihedrals ...
  219910 dihedrals
  reading impropers ...
  6000 impropers
Finding 1-2 1-3 1-4 neighbors ...
     4 = max # of 1-2 neighbors
    11 = max # of 1-3 neighbors
    22 = max # of 1-4 neighbors
    26 = max # of special neighbors
# do not reset velocities

# vars
variable dt equal 1.0
variable tLog equal 1000
variable nEvery equal 10
variable nRepeat equal 100
variable boolDump equal 0
variable tDump equal 1000

variable tPreeq equal 10000
variable tPrerun equal 10000
variable tDelay equal 1000
variable tTCrun equal 1000000

# desiered temperature difference
variable Tavg equal 300.0
variable TempDiff equal 100.0
variable Thi equal 300+(100/2)
variable Tlo equal 300-(100/2)

# defining regions
variable hot_lo equal (ly*0)+ylo
variable hot_hi equal (ly*0.05)+ylo
variable cold_lo equal (ly*0.50)+ylo
variable cold_hi equal (ly*0.55)+ylo

# define heating and cooling block regions
region hot block INF INF -24.0798239715051 -21.6718415743546 INF INF units box
region cold block INF INF 0 2.40798239715051 INF INF units box
compute Thot all temp/region hot
compute Tcold all temp/region cold

# STEP 1 - 1st equilibration (nve)
# 1a - thermo output for md1
thermo_style custom step time temp c_Thot c_Tcold press enthalpy etotal ke pe
thermo_modify colname c_Thot Temp_hot colname c_Tcold Temp_cold
thermo_modify flush yes
thermo 1000

# 1b - nve equilibration
timestep 1
fix md1 all nve
run 10000
PPPM initialization ...
  G vector (1/distance) = 0.27316341
  grid = 60 60 225
  stencil order = 5
  estimated absolute RMS force accuracy = 0.00037618852
  estimated relative force accuracy = 1.1328806e-06
  3d grid and FFT values/proc = 47915 28800
Generated 120 of 120 mixed pair_coeff terms from arithmetic mixing rule
Step          Time           Temp         Temp_hot      Temp_cold        Press         Enthalpy        TotEng         KinEng         PotEng
0   0              300.41615      300.55937      299.18298      42.831017     -571123.67     -571607.16      73446.659     -645053.82
Averages over the last 6 of 11 rows, steps 5000 to 10000:
Temp Temp_hot Temp_cold Press Enthalpy TotEng KinEng PotEng
300.018 299.121 302.202 11.1392 -571472 -571598 73349.4 -644948
Loop time of 421.972 on 32 procs for 10000 steps with 82020 atoms

unfix md1

# STEP 2 - pre run
# 2a - impose nve
fix md2 all nve

# 2b - impose thermostating
fix hot all langevin 350 350 100.0 57485 tally yes
fix cold all langevin 250 250 100.0 12490 tally yes
fix_modify hot temp Thot
fix_modify cold temp Tcold
# calculate tdiff of regions
variable tdiff equal c_Thot-c_Tcold

# 2c - thermo output
thermo_style custom step time temp c_Thot c_Tcold f_hot f_cold v_tdiff press enthalpy etotal ke pe
thermo_modify colname c_Thot Temp_hot colname c_Tcold Temp_cold               colname f_hot E_hot colname f_cold E_cold               colname v_tdiff dTemp_step
thermo_modify flush yes
thermo 1000

# 2d - pre run
run 10000
PPPM initialization ...
  G vector (1/distance) = 0.27316341
  grid = 60 60 225
  stencil order = 5
  estimated absolute RMS force accuracy = 0.00037618852
  estimated relative force accuracy = 1.1328806e-06
  3d grid and FFT values/proc = 47915 28800
Generated 120 of 120 mixed pair_coeff terms from arithmetic mixing rule
Step          Time           Temp         Temp_hot      Temp_cold        E_hot          E_cold       dTemp_step       Press         Enthalpy        TotEng         KinEng         PotEng
10000   10000          300.62632      299.74888      305.38273     -0             -0             -5.6338514     -125.15272     -573017.01     -571604.25      73498.043     -645102.29
Averages over the last 6 of 11 rows, steps 15000 to 20000:
Temp Temp_hot Temp_cold E_hot E_cold dTemp_step Press Enthalpy TotEng KinEng PotEng
299.701 348.378 253.833 -8527.81 8764.62 94.5444 -142.289 -573358 -571752 73271.9 -645024
Loop time of 428.026 on 32 procs for 10000 steps with 82020 atoms

unfix md2

# STEP 3 - md for tc caluclation
# 3a - impose nve
fix md3 all nve

# 3b - calculate and output thermal profile
compute ke all ke/atom
variable temp atom c_ke/(1.5*0.001987204)
compute layers all chunk/atom bin/1d y lower 0.05 units reduced
fix bins all ave/chunk 10 100 1000 layers v_temp file Tprofile_y_lav.dat

# 3c - reset thermostats to zero energy accumulation
fix hot all langevin 350 350 100.0 57485 tally yes
fix cold all langevin 250 250 100.0 12490 tally yes
fix_modify hot temp Thot
fix_modify cold temp Tcold

# 3c - compute average tdiff
fix ave all ave/time 10 100 1000 v_tdiff ave running

# 3d - time delay run
variable aTime equal time
variable start_time equal 20000
run 1000
PPPM initialization ...
  G vector (1/distance) = 0.27316341
  grid = 60 60 225
  stencil order = 5
  estimated absolute RMS force accuracy = 0.00037618852
  estimated relative force accuracy = 1.1328806e-06
  3d grid and FFT values/proc = 47915 28800
Generated 120 of 120 mixed pair_coeff terms from arithmetic mixing rule
Step          Time           Temp         Temp_hot      Temp_cold        E_hot          E_cold       dTemp_step       Press         Enthalpy        TotEng         KinEng         PotEng
20000   20000          299.29269      349.33544      253.94064     -0             -0              95.394793     -23.402856     -572100.33     -571836.15      73171.992     -645008.15
Loop time of 42.4273 on 32 procs for 1000 steps with 82020 atoms

# 3f - calculate kappa
variable kappa_inst equal (0.5*(abs(f_hot)+abs(f_cold))/(time-20000)/(lx*lz)/2.0)*(ly/2.0)/v_tdiff*69478.5785
variable kappa equal (0.5*(abs(f_hot)+abs(f_cold))/(time-20000)/(lx*lz)/2.0)*(ly/2.0)/f_ave*69478.5785

# 3e - thermo out
# dump dump_tc all custom 1000 dump.tc_x_ehex.lammpstrj id type mol x y z ix iy iz vx vy vz
thermo_style custom step time v_kappa v_kappa_inst c_Thot c_Tcold v_tdiff f_ave temp press enthalpy etotal ke pe
thermo_modify colname v_kappa kappa colname v_kappa_inst kappa_inst               colname c_Thot Temp_hot colname c_Tcold Temp_cold               colname v_tdiff dTemp_step colname f_ave dTemp
thermo_modify flush yes
thermo 1000

# 2g - md run for kappa calculation
# optional traj dump
run 1000000
PPPM initialization ...
  G vector (1/distance) = 0.27316341
  grid = 60 60 225
  stencil order = 5
  estimated absolute RMS force accuracy = 0.00037618852
  estimated relative force accuracy = 1.1328806e-06
  3d grid and FFT values/proc = 47915 28800
Generated 120 of 120 mixed pair_coeff terms from arithmetic mixing rule
Step          Time          kappa        kappa_inst      Temp_hot      Temp_cold      dTemp_step       dTemp           Temp          Press         Enthalpy        TotEng         KinEng         PotEng
21000   21000          0              0              348.00491      256.55705      91.447855      94.159364      300.23015      74.196573     -571218.16     -572055.71      73401.185     -645456.9
Averages over the last 501 of 1001 rows, steps 521000 to 1021000:
kappa kappa_inst Temp_hot Temp_cold dTemp_step dTemp Temp Press Enthalpy TotEng KinEng PotEng
0.315317 0.315797 347.861 252.418 95.4437 95.2591 298.845 -102.506 -573569 -572412 73062.5 -645475
Loop time of 44405.9 on 32 procs for 1000000 steps with 82020 atoms
