units real
atom_style full
boundary p p p

# styles
pair_style lj/charmm/coul/long 8.0 12.0
kspace_style pppm 1e-6
dielectric 1.000000
bond_style harmonic
angle_style harmonic
dihedral_style fourier
improper_style cvff
special_bonds amber
pair_modify mix arithmetic
neighbor 2.0 bin
neigh_modify delay 0 every 1 check yes

# system definition
read_data ../final.data
Reading data file ...
  orthogonal box = (-27.956921 -32.298732 -28.85231) to (27.956921 32.298732 28.85231)
  reading atoms ...
  24020 atoms
  reading velocities ...
  24020 velocities
  scanning bonds ...
  scanning angles ...
  scanning dihedrals ...
  reading bonds ...
  24010 bonds
  reading angles ...
  48000 angles
  reading dihedrals ...
  71910 dihedrals
Finding 1-2 1-3 1-4 neighbors ...
     4 = max # of 1-2 neighbors
    12 = max # of 1-3 neighbors
    24 = max # of 1-4 neighbors
    28 = max # of special neighbors
# do not reset velocities

# vars
variable tLog equal 1000
variable nEvery equal 10
variable nRepeat equal 100
variable boolDump equal 0
variable tDump equal 1000

variable tPreeq equal 10000
variable tPrerun equal 10000
variable tTCrun equal 1000000

variable diffT_delay equal 10000+10000
# heatflux of 0.05 give good results over 1 ns
variable heat_flux equal 0.05
variable heat_flux_neg equal -1*v_heat_flux

# defining region
variable hot_lo equal (ly*0)+ylo
variable hot_hi equal (ly*0.05)+ylo
variable cold_lo equal (ly*0.50)+ylo
variable cold_hi equal (ly*0.55)+ylo

DEBUG: -32.2987315657928 -29.0688584092136 0 3.22987315657929

# define heating and cooling block regions
region hot block INF INF -32.2987315657928 -29.0688584092136 INF INF units box
region cold block INF INF 0 3.22987315657929 INF INF units box
compute Thot all temp/region hot
compute Tcold all temp/region cold

# STEP 1 - 1st equilibration (nve)
# 1a - thermo output for md2
thermo_style custom step time temp c_Thot c_Tcold press enthalpy etotal ke pe
thermo_modify colname c_Thot Temp_hot colname c_Tcold Temp_cold
thermo_modify flush yes
thermo 1000

# 1b - nve equilibration
timestep 1.0
fix md2 all nve
run 10000
PPPM initialization ...
  G vector (1/distance) = 0.25883856
  grid = 45 50 45
  stencil order = 5
  estimated absolute RMS force accuracy = 0.0003737492
  estimated relative force accuracy = 1.1255346e-06
  3d grid and FFT values/proc = 9918 4500
Generated 3 of 3 mixed pair_coeff terms from arithmetic mixing rule
Step          Time           Temp         Temp_hot      Temp_cold        Press         Enthalpy        TotEng         KinEng         PotEng
0   0              299.31856      303.31334      302.95506      529.8002      -86442.089     -88052.488      21430.034     -109482.52
Averages over the last 6 of 11 rows, steps 5000 to 10000:
Temp Temp_hot Temp_cold Press Enthalpy TotEng KinEng PotEng
298.94 304.685 300.095 90.291 -87781.4 -88055.9 21403 -109459
Loop time of 102.084 on 32 procs for 10000 steps with 24020 atoms

unfix md2

# STEP 2 - MD for thermal conductivity
# 2a - impose nve
fix md3 all nve

# 2b - impose heat flux
fix hot all ehex 1 0.05 region hot
fix cold all ehex 1 -0.05 region cold

# 2c - calculate thermal profile
compute ke all ke/atom
variable temp atom c_ke/(1.5*0.001987204)

compute layers all chunk/atom bin/1d y lower 0.05 units reduced
fix bins all ave/chunk 10 100 1000 layers v_temp file Tprofile_y_ehex.dat

variable tdiff equal c_Thot-c_Tcold
fix ave all ave/time 10 100 1000 v_tdiff ave running start 20000

# pre define kappa
variable kappa_inst equal 0
variable kappa equal 0

# 2d - thermo out
# dump dump_tc all custom 1000 dump.tc_x_ehex.lammpstrj id type mol x y z ix iy iz vx vy vz
thermo_style custom step time v_kappa v_kappa_inst c_Thot c_Tcold v_tdiff f_ave temp press enthalpy etotal ke pe
thermo_modify colname v_kappa kappa colname v_kappa_inst kappa_inst colname c_Thot Temp_hot colname c_Tcold Temp_cold colname v_tdiff dTemp_step colname f_ave dTemp
thermo_modify flush yes
thermo 1000

# 2e - prerun
run 10000
PPPM initialization ...
  G vector (1/distance) = 0.25883856
  grid = 45 50 45
  stencil order = 5
  estimated absolute RMS force accuracy = 0.0003737492
  estimated relative force accuracy = 1.1255346e-06
  3d grid and FFT values/proc = 9918 4500
Generated 3 of 3 mixed pair_coeff terms from arithmetic mixing rule
Step          Time          kappa        kappa_inst      Temp_hot      Temp_cold      dTemp_step       dTemp           Temp          Press         Enthalpy        TotEng         KinEng         PotEng
10000   10000          0              0              297.74254      290.03795      7.7045903      0              299.44555      210.20371     -87419.091     -88058.033      21439.126     -109497.16
Averages over the last 6 of 11 rows, steps 15000 to 20000:
kappa kappa_inst Temp_hot Temp_cold dTemp_step dTemp Temp Press Enthalpy TotEng KinEng PotEng
0 0 310.224 290.59 19.6341 4.93165 298.115 -28.9157 -88141.8 -88054 21343.8 -109398
Loop time of 102.683 on 32 procs for 10000 steps with 24020 atoms

# 2f - calc kappa
variable kappa_inst equal (0.05/(lx*lz)/2.0)*(ly/2.0)/v_tdiff*69478.5785
variable kappa equal (0.05/(lx*lz)/2.0)*(ly/2.0)/f_ave*69478.5785

# 2g - md run for kappa calculation
# optional traj dump
run 1000000
PPPM initialization ...
  G vector (1/distance) = 0.25883856
  grid = 45 50 45
  stencil order = 5
  estimated absolute RMS force accuracy = 0.0003737492
  estimated relative force accuracy = 1.1255346e-06
  3d grid and FFT values/proc = 9918 4500
Generated 3 of 3 mixed pair_coeff terms from arithmetic mixing rule
Step          Time          kappa        kappa_inst      Temp_hot      Temp_cold      dTemp_step       dTemp           Temp          Press         Enthalpy        TotEng         KinEng         PotEng
20000   20000          0.58762873     0.64993666     319.45289      292.69971      26.753182      29.589897      297.48727      601.50666     -86224.328     -88052.688      21298.921     -109351.61
Averages over the last 501 of 1001 rows, steps 520000 to 1020000:
kappa kappa_inst Temp_hot Temp_cold dTemp_step dTemp Temp Press Enthalpy TotEng KinEng PotEng
0.267 0.273829 333.524 268.355 65.1699 65.1236 299.628 -60.3179 -88239.1 -88055.7 21452.2 -109508
Loop time of 10320.1 on 32 procs for 1000000 steps with 24020 atoms
