units real
atom_style full
boundary p p p

# styles
pair_style lj/charmm/coul/long 8.0 12.0
kspace_style pppm 1e-6
dielectric 1.000000
bond_style harmonic
angle_style harmonic
dihedral_style fourier
improper_style cvff
special_bonds amber
pair_modify mix arithmetic
neighbor 2.0 bin
neigh_modify delay 0 every 1 check yes

# system definition
read_data ../final.data
Reading data file ...
  orthogonal box = (-27.956921 -32.298732 -28.85231) to (27.956921 32.298732 28.85231)
  reading atoms ...
  24020 atoms
  reading velocities ...
  24020 velocities
  scanning bonds ...
  scanning angles ...
  scanning dihedrals ...
  reading bonds ...
  24010 bonds
  reading angles ...
  48000 angles
  reading dihedrals ...
  71910 dihedrals
Finding 1-2 1-3 1-4 neighbors ...
     4 = max # of 1-2 neighbors
    12 = max # of 1-3 neighbors
    24 = max # of 1-4 neighbors
    28 = max # of special neighbors
# do not reset velocities

# vars
variable tLog equal 1000
variable nEvery equal 10
variable nRepeat equal 100
variable boolDump equal 0
variable tDump equal 1000

variable tPreeq equal 10000
variable tPrerun equal 10000
variable tTCrun equal 1000000

variable diffT_delay equal 10000+10000
# heatflux of 0.05 give good results over 1 ns
variable heat_flux equal 0.05
variable heat_flux_neg equal -1*v_heat_flux

# defining region
variable hot_lo equal (lz*0)+zlo
variable hot_hi equal (lz*0.05)+zlo
variable cold_lo equal (lz*0.50)+zlo
variable cold_hi equal (lz*0.55)+zlo

DEBUG: -28.8523096260642 -25.9670786634578 0 2.88523096260642

# define heating and cooling block regions
region hot block INF INF INF INF -28.8523096260642 -25.9670786634578 units box
region cold block INF INF INF INF 0 2.88523096260642 units box
compute Thot all temp/region hot
compute Tcold all temp/region cold

# STEP 1 - 1st equilibration (nve)
# 1a - thermo output for md2
thermo_style custom step time temp c_Thot c_Tcold press enthalpy etotal ke pe
thermo_modify colname c_Thot Temp_hot colname c_Tcold Temp_cold
thermo_modify flush yes
thermo 1000

# 1b - nve equilibration
timestep 1.0
fix md2 all nve
run 10000
PPPM initialization ...
  G vector (1/distance) = 0.25883856
  grid = 45 50 45
  stencil order = 5
  estimated absolute RMS force accuracy = 0.0003737492
  estimated relative force accuracy = 1.1255346e-06
  3d grid and FFT values/proc = 9918 4500
Generated 3 of 3 mixed pair_coeff terms from arithmetic mixing rule
Step          Time           Temp         Temp_hot      Temp_cold        Press         Enthalpy        TotEng         KinEng         PotEng
0   0              299.31856      290.67743      297.24622      529.8002      -86442.089     -88052.488      21430.034     -109482.52
Averages over the last 6 of 11 rows, steps 5000 to 10000:
Temp Temp_hot Temp_cold Press Enthalpy TotEng KinEng PotEng
298.94 297.527 297.032 90.291 -87781.4 -88055.9 21403 -109459
Loop time of 103.819 on 32 procs for 10000 steps with 24020 atoms

unfix md2

# STEP 2 - MD for thermal conductivity
# 2a - impose nve
fix md3 all nve

# 2b - impose heat flux
fix hot all ehex 1 0.05 region hot
fix cold all ehex 1 -0.05 region cold

# 2c - calculate thermal profile
compute ke all ke/atom
variable temp atom c_ke/(1.5*0.001987204)

compute layers all chunk/atom bin/1d z lower 0.05 units reduced
fix bins all ave/chunk 10 100 1000 layers v_temp file Tprofile_z_ehex.dat

variable tdiff equal c_Thot-c_Tcold
fix ave all ave/time 10 100 1000 v_tdiff ave running start 20000

# pre define kappa
variable kappa_inst equal 0
variable kappa equal 0

# 2d - thermo out
# dump dump_tc all custom 1000 dump.tc_x_ehex.lammpstrj id type mol x y z ix iy iz vx vy vz
thermo_style custom step time v_kappa v_kappa_inst c_Thot c_Tcold v_tdiff f_ave temp press enthalpy etotal ke pe
thermo_modify colname v_kappa kappa colname v_kappa_inst kappa_inst colname c_Thot Temp_hot colname c_Tcold Temp_cold colname v_tdiff dTemp_step colname f_ave dTemp
thermo_modify flush yes
thermo 1000

# 2e - prerun
run 10000
PPPM initialization ...
  G vector (1/distance) = 0.25883856
  grid = 45 50 45
  stencil order = 5
  estimated absolute RMS force accuracy = 0.0003737492
  estimated relative force accuracy = 1.1255346e-06
  3d grid and FFT values/proc = 9918 4500
Generated 3 of 3 mixed pair_coeff terms from arithmetic mixing rule
Step          Time          kappa        kappa_inst      Temp_hot      Temp_cold      dTemp_step       dTemp           Temp          Press         Enthalpy        TotEng         KinEng         PotEng
10000   10000          0              0              303.02981      298.56407      4.4657342      0              299.44555      210.20371     -87419.091     -88058.033      21439.126     -109497.16
Averages over the last 6 of 11 rows, steps 15000 to 20000:
kappa kappa_inst Temp_hot Temp_cold dTemp_step dTemp Temp Press Enthalpy TotEng KinEng PotEng
0 0 310.472 293.566 16.9065 3.34961 299.465 325.605 -87068.8 -88058.5 21440.5 -109499
Loop time of 103.662 on 32 procs for 10000 steps with 24020 atoms

# 2f - calc kappa
variable kappa_inst equal (0.05/(lx*ly)/2.0)*(lz/2.0)/v_tdiff*69478.5785
variable kappa equal (0.05/(lx*ly)/2.0)*(lz/2.0)/f_ave*69478.5785

# 2g - md run for kappa calculation
# optional traj dump
run 1000000
PPPM initialization ...
  G vector (1/distance) = 0.25883856
  grid = 45 50 45
  stencil order = 5
  estimated absolute RMS force accuracy = 0.0003737492
  estimated relative force accuracy = 1.1255346e-06
  3d grid and FFT values/proc = 9918 4500
Generated 3 of 3 mixed pair_coeff terms from arithmetic mixing rule
Step          Time          kappa        kappa_inst      Temp_hot      Temp_cold      dTemp_step       dTemp           Temp          Press         Enthalpy        TotEng         KinEng         PotEng
20000   20000          0.69038529     0.81326107     307.06593      290.00484      17.061089      20.097646      299.88215      34.375434     -87950.425     -88054.914      21470.385     -109525.3
Averages over the last 501 of 1001 rows, steps 520000 to 1020000:
kappa kappa_inst Temp_hot Temp_cold dTemp_step dTemp Temp Press Enthalpy TotEng KinEng PotEng
0.288946 0.293644 326.392 276.991 49.4014 48.0212 299.358 -86.3362 -88318.3 -88055.9 21432.8 -109489
Loop time of 10304.7 on 32 procs for 1000000 steps with 24020 atoms
