units real
atom_style full
boundary p p p

# styles
pair_style lj/charmm/coul/long 8.0 12.0
kspace_style pppm 1e-6
dielectric 1.000000
bond_style harmonic
angle_style harmonic
dihedral_style fourier
improper_style cvff
special_bonds amber
pair_modify mix arithmetic
neighbor 2.0 bin
neigh_modify delay 0 every 1 check yes

# system definition
read_data ../final.data
Reading data file ...
  orthogonal box = (-33.498877 -36.417644 -30.882204) to (33.498877 36.417644 30.882204)
  reading atoms ...
  32020 atoms
  reading velocities ...
  32020 velocities
  scanning bonds ...
  scanning angles ...
  scanning dihedrals ...
  scanning impropers ...
  reading bonds ...
  32010 bonds
  reading angles ...
  60000 angles
  reading dihedrals ...
  79910 dihedrals
  reading impropers ...
  2000 impropers
Finding 1-2 1-3 1-4 neighbors ...
     4 = max # of 1-2 neighbors
     8 = max # of 1-3 neighbors
    17 = max # of 1-4 neighbors
    20 = max # of special neighbors
# do not reset velocities

# vars
variable tLog equal 1000
variable nEvery equal 10
variable nRepeat equal 100
variable boolDump equal 0
variable tDump equal 1000

variable tPreeq equal 10000
variable tPrerun equal 10000
variable tTCrun equal 1000000

variable diffT_delay equal 10000+10000
# heatflux of 0.05 give good results over 1 ns
variable heat_flux equal 0.05
variable heat_flux_neg equal -1*v_heat_flux

# defining region
variable hot_lo equal (lx*0)+xlo
variable hot_hi equal (lx*0.05)+xlo
variable cold_lo equal (lx*0.50)+xlo
variable cold_hi equal (lx*0.55)+xlo

DEBUG: -33.4988771667993 -30.1489894501194 0 3.34988771667993

# define heating and cooling block regions
region hot block -33.4988771667993 -30.1489894501194 INF INF INF INF units box
region cold block 0 3.34988771667993 INF INF INF INF units box
compute Thot all temp/region hot
compute Tcold all temp/region cold

# STEP 1 - 1st equilibration (nve)
# 1a - thermo output for md2
thermo_style custom step time temp c_Thot c_Tcold press enthalpy etotal ke pe
thermo_modify colname c_Thot Temp_hot colname c_Tcold Temp_cold
thermo_modify flush yes
thermo 1000

# 1b - nve equilibration
timestep 1.0
fix md2 all nve
run 10000
PPPM initialization ...
  G vector (1/distance) = 0.25627571
  grid = 50 54 48
  stencil order = 5
  estimated absolute RMS force accuracy = 0.0003553538
  estimated relative force accuracy = 1.0701374e-06
  3d grid and FFT values/proc = 11780 5400
Generated 21 of 21 mixed pair_coeff terms from arithmetic mixing rule
Step          Time           Temp         Temp_hot      Temp_cold        Press         Enthalpy        TotEng         KinEng         PotEng
0   0              299.59509      299.16706      298.07023     -425.02464      74065.257      75933.487      28594.121      47339.366
Averages over the last 6 of 11 rows, steps 5000 to 10000:
Temp Temp_hot Temp_cold Press Enthalpy TotEng KinEng PotEng
299.708 299.767 297.882 -274.303 74731 75936.7 28604.9 47331.9
Loop time of 128.903 on 32 procs for 10000 steps with 32020 atoms

unfix md2

# STEP 2 - MD for thermal conductivity
# 2a - impose nve
fix md3 all nve

# 2b - impose heat flux
fix hot all ehex 1 0.05 region hot
fix cold all ehex 1 -0.05 region cold

# 2c - calculate thermal profile
compute ke all ke/atom
variable temp atom c_ke/(1.5*0.001987204)

compute layers all chunk/atom bin/1d x lower 0.05 units reduced
fix bins all ave/chunk 10 100 1000 layers v_temp file Tprofile_x_ehex.dat

variable tdiff equal c_Thot-c_Tcold
fix ave all ave/time 10 100 1000 v_tdiff ave running start 20000

# pre define kappa
variable kappa_inst equal 0
variable kappa equal 0

# 2d - thermo out
# dump dump_tc all custom 1000 dump.tc_x_ehex.lammpstrj id type mol x y z ix iy iz vx vy vz
thermo_style custom step time v_kappa v_kappa_inst c_Thot c_Tcold v_tdiff f_ave temp press enthalpy etotal ke pe
thermo_modify colname v_kappa kappa colname v_kappa_inst kappa_inst colname c_Thot Temp_hot colname c_Tcold Temp_cold colname v_tdiff dTemp_step colname f_ave dTemp
thermo_modify flush yes
thermo 1000

# 2e - prerun
run 10000
PPPM initialization ...
  G vector (1/distance) = 0.25627571
  grid = 50 54 48
  stencil order = 5
  estimated absolute RMS force accuracy = 0.0003553538
  estimated relative force accuracy = 1.0701374e-06
  3d grid and FFT values/proc = 11780 5400
Generated 21 of 21 mixed pair_coeff terms from arithmetic mixing rule
Step          Time          kappa        kappa_inst      Temp_hot      Temp_cold      dTemp_step       dTemp           Temp          Press         Enthalpy        TotEng         KinEng         PotEng
10000   10000          0              0              292.99959      296.5708      -3.5712086      0              298.38727      115.06575      76444.356      75938.575      28478.844      47459.731
Averages over the last 6 of 11 rows, steps 15000 to 20000:
kappa kappa_inst Temp_hot Temp_cold dTemp_step dTemp Temp Press Enthalpy TotEng KinEng PotEng
0 0 311.304 293.007 18.2977 3.66662 299.686 185.543 76748.7 75933.2 28602.8 47330.4
Loop time of 127.231 on 32 procs for 10000 steps with 32020 atoms

# 2f - calc kappa
variable kappa_inst equal (0.05/(ly*lz)/2.0)*(lx/2.0)/v_tdiff*69478.5785
variable kappa equal (0.05/(ly*lz)/2.0)*(lx/2.0)/f_ave*69478.5785

# 2g - md run for kappa calculation
# optional traj dump
run 1000000
PPPM initialization ...
  G vector (1/distance) = 0.25627571
  grid = 50 54 48
  stencil order = 5
  estimated absolute RMS force accuracy = 0.0003553538
  estimated relative force accuracy = 1.0701374e-06
  3d grid and FFT values/proc = 11780 5400
Generated 21 of 21 mixed pair_coeff terms from arithmetic mixing rule
Step          Time          kappa        kappa_inst      Temp_hot      Temp_cold      dTemp_step       dTemp           Temp          Press         Enthalpy        TotEng         KinEng         PotEng
20000   20000          0.58792694     0.59506633     312.12519      290.38938      21.735803      21.999748      301.01006      942.545        80073.369      75930.337      28729.17       47201.167
Averages over the last 501 of 1001 rows, steps 520000 to 1020000:
kappa kappa_inst Temp_hot Temp_cold dTemp_step dTemp Temp Press Enthalpy TotEng KinEng PotEng
0.245104 0.244403 326.568 272.11 54.4577 52.7746 299.774 -4.71909 75913.5 75934.3 28611.2 47323.1
Loop time of 12653.2 on 32 procs for 1000000 steps with 32020 atoms
