units real
atom_style full
boundary p p p

# styles
pair_style lj/charmm/coul/long 8.0 12.0
kspace_style pppm 1e-6
dielectric 1.000000
bond_style harmonic
angle_style harmonic
dihedral_style fourier
improper_style cvff
special_bonds amber
pair_modify mix arithmetic
neighbor 2.0 bin
neigh_modify delay 0 every 1 check yes

# system definition
read_data ../final.data
Reading data file ...
  orthogonal box = (-35.667086 -39.652884 -27.891195) to (35.667086 39.652884 27.891195)
  reading atoms ...
  30020 atoms
  reading velocities ...
  30020 velocities
  scanning bonds ...
  scanning angles ...
  scanning dihedrals ...
  orthogonal box = (-35.667086 -39.652884 -27.891195) to (35.667086 39.652884 27.891195)
  reading bonds ...
  30010 bonds
  reading angles ...
  56000 angles
  reading dihedrals ...
  75910 dihedrals
Finding 1-2 1-3 1-4 neighbors ...
     4 = max # of 1-2 neighbors
    11 = max # of 1-3 neighbors
    22 = max # of 1-4 neighbors
    26 = max # of special neighbors
# do not reset velocities

# vars
variable tLog equal 1000
variable nEvery equal 10
variable nRepeat equal 100
variable boolDump equal 0
variable tDump equal 1000

variable tPreeq equal 10000
variable tPrerun equal 10000
variable tTCrun equal 1500000

variable diffT_delay equal 10000+10000
# heatflux of 0.05 give good results over 1 ns
variable heat_flux equal 0.02
variable heat_flux_neg equal -1*v_heat_flux

# defining region
variable hot_lo equal (ly*0)+ylo
variable hot_hi equal (ly*0.05)+ylo
variable cold_lo equal (ly*0.50)+ylo
variable cold_hi equal (ly*0.55)+ylo

DEBUG: -39.6528842348276 -35.6875958113448 0 3.96528842348276

# define heating and cooling block regions
region hot block INF INF -39.6528842348276 -35.6875958113448 INF INF units box
region cold block INF INF 0 3.96528842348276 INF INF units box
compute Thot all temp/region hot
compute Tcold all temp/region cold

# STEP 1 - 1st equilibration (nve)
# 1a - thermo output for md2
thermo_style custom step time temp c_Thot c_Tcold press enthalpy etotal ke pe
thermo_modify colname c_Thot Temp_hot colname c_Tcold Temp_cold
thermo_modify flush yes
thermo 1000

# 1b - nve equilibration
timestep 1.0
fix md2 all nve
run 10000

CITE-CITE-CITE-CITE-CITE-CITE-CITE-CITE-CITE-CITE-CITE-CITE-CITE

Your simulation uses code contributions which should be cited:

- Type Label Framework: https://doi.org/10.1021/acs.jpcb.3c08419

@Article{Gissinger24,
 author = {Jacob R. Gissinger, Ilia Nikiforov, Yaser Afshar, Brendon Waters, Moon-ki Choi, Daniel S. Karls, Alexander Stukowski, Wonpil Im, Hendrik Heinz, Axel Kohlmeyer, and Ellad B. Tadmor},
 title = {Type Label Framework for Bonded Force Fields in LAMMPS},
 journal = {J. Phys. Chem. B},
 year =    2024,
 volume =  128,
 number =  13,
 pages =   {3282â€“-3297}
}

CITE-CITE-CITE-CITE-CITE-CITE-CITE-CITE-CITE-CITE-CITE-CITE-CITE

PPPM initialization ...
  G vector (1/distance) = 0.25787445
  grid = 54 60 45
  stencil order = 5
  estimated absolute RMS force accuracy = 0.00038404524
  estimated relative force accuracy = 1.1565408e-06
  3d grid and FFT values/proc = 12760 6480
Generated 21 of 21 mixed pair_coeff terms from arithmetic mixing rule
Step          Time           Temp         Temp_hot      Temp_cold        Press         Enthalpy        TotEng         KinEng         PotEng
0   0              297.69673      305.34862      299.37518      213.30029      130639.82      129658.15      26638.183      103019.96
Averages over the last 6 of 11 rows, steps 5000 to 10000:
Temp Temp_hot Temp_cold Press Enthalpy TotEng KinEng PotEng
298.439 306.659 302.783 28.5185 129787 129656 26704.6 102952
Loop time of 143.272 on 32 procs for 10000 steps with 30020 atoms

unfix md2

# STEP 2 - MD for thermal conductivity
# 2a - impose nve
fix md3 all nve

# 2b - impose heat flux
fix hot all ehex 1 0.02 region hot
fix cold all ehex 1 -0.02 region cold

# 2c - calculate thermal profile
compute ke all ke/atom
variable temp atom c_ke/(1.5*0.001987204)

compute layers all chunk/atom bin/1d y lower 0.05 units reduced
fix bins all ave/chunk 10 100 1000 layers v_temp file Tprofile_y_ehex.dat

variable tdiff equal c_Thot-c_Tcold
fix ave all ave/time 10 100 1000 v_tdiff ave running start 20000

# pre define kappa
variable kappa_inst equal 0
variable kappa equal 0

# 2d - thermo out
# dump dump_tc all custom 1000 dump.tc_x_ehex.lammpstrj id type mol x y z ix iy iz vx vy vz
thermo_style custom step time v_kappa v_kappa_inst c_Thot c_Tcold v_tdiff f_ave temp press enthalpy etotal ke pe
thermo_modify colname v_kappa kappa colname v_kappa_inst kappa_inst colname c_Thot Temp_hot colname c_Tcold Temp_cold colname v_tdiff dTemp_step colname f_ave dTemp
thermo_modify flush yes
thermo 1000

# 2e - prerun
run 10000
PPPM initialization ...
  G vector (1/distance) = 0.25787445
  grid = 54 60 45
  stencil order = 5
  estimated absolute RMS force accuracy = 0.00038404524
  estimated relative force accuracy = 1.1565408e-06
  3d grid and FFT values/proc = 12760 6480
Generated 21 of 21 mixed pair_coeff terms from arithmetic mixing rule
Step          Time          kappa        kappa_inst      Temp_hot      Temp_cold      dTemp_step       dTemp           Temp          Press         Enthalpy        TotEng         KinEng         PotEng
10000   10000          0              0              316.84807      308.91947      7.928601       0              299.2864      -387.29479      127875.8       129658.25      26780.428      102877.82
Averages over the last 6 of 11 rows, steps 15000 to 20000:
kappa kappa_inst Temp_hot Temp_cold dTemp_step dTemp Temp Press Enthalpy TotEng KinEng PotEng
0 0 302.343 290.822 11.5216 3.53006 299.068 2.17219 129665 129655 26760.9 102894
Loop time of 142.948 on 32 procs for 10000 steps with 30020 atoms

# 2f - calc kappa
variable kappa_inst equal (0.02/(lx*lz)/2.0)*(ly/2.0)/v_tdiff*69478.5785
variable kappa equal (0.02/(lx*lz)/2.0)*(ly/2.0)/f_ave*69478.5785

# 2g - md run for kappa calculation
# optional traj dump
run 1500000
PPPM initialization ...
  G vector (1/distance) = 0.25787445
  grid = 54 60 45
  stencil order = 5
  estimated absolute RMS force accuracy = 0.00038404524
  estimated relative force accuracy = 1.1565408e-06
  3d grid and FFT values/proc = 12760 6480
Generated 21 of 21 mixed pair_coeff terms from arithmetic mixing rule
Step          Time          kappa        kappa_inst      Temp_hot      Temp_cold      dTemp_step       dTemp           Temp          Press         Enthalpy        TotEng         KinEng         PotEng
20000   20000          0.32688691     1.7675165      298.51123      294.5941       3.9171255      21.180365      297.8902      -145.66078      128993.37      129663.75      26655.494      103008.25
Averages over the last 751 of 1501 rows, steps 770000 to 1520000:
kappa kappa_inst Temp_hot Temp_cold dTemp_step dTemp Temp Press Enthalpy TotEng KinEng PotEng
0.202963 0.213558 316.276 281.008 35.2686 34.1149 298.805 -142.319 129001 129656 26737.4 102918
Loop time of 21604.3 on 32 procs for 1500000 steps with 30020 atoms
